Version 4
SHEET 1 1012 708
WIRE 352 -16 -448 -16
WIRE 512 -16 432 -16
WIRE 656 -16 512 -16
WIRE 800 -16 720 -16
WIRE 944 -16 800 -16
WIRE -448 48 -448 -16
WIRE -320 48 -448 48
WIRE 368 64 304 64
WIRE 512 64 512 -16
WIRE 944 80 944 -16
WIRE 368 96 368 64
WIRE 304 112 304 64
WIRE 304 112 272 112
WIRE 800 112 800 -16
WIRE -448 144 -448 48
WIRE 464 144 272 144
WIRE 320 176 272 176
WIRE 448 176 320 176
WIRE 320 192 320 176
WIRE 336 192 320 192
WIRE 32 208 -48 208
WIRE 112 208 32 208
WIRE 304 208 272 208
WIRE 800 240 800 176
WIRE 944 240 944 160
WIRE -448 272 -448 224
WIRE 336 272 336 192
WIRE 512 272 512 160
WIRE 304 288 304 208
WIRE 304 288 240 288
WIRE 304 304 304 288
WIRE 304 304 272 304
WIRE 32 336 32 208
WIRE 96 336 32 336
WIRE 240 336 240 288
WIRE 240 336 176 336
WIRE 272 336 272 304
WIRE -48 384 -48 208
WIRE 336 384 336 336
WIRE 272 432 272 400
WIRE -48 480 -48 448
WIRE -320 528 -320 48
WIRE 448 528 448 176
WIRE 448 528 -320 528
FLAG 800 240 0
FLAG 512 272 0
FLAG -448 272 0
FLAG 336 384 0
FLAG 272 432 0
FLAG -48 480 0
FLAG 944 240 0
FLAG 368 96 0
SYMBOL AutoGenerated\\UCC28C45_STEADY 192 160 R0
SYMATTR InstName U1
SYMBOL nmos 464 64 R0
SYMATTR InstName M1
SYMBOL diode 656 0 R270
WINDOW 0 32 32 VTop 2
WINDOW 3 0 32 VBottom 2
SYMATTR InstName D1
SYMBOL ind 336 0 R270
WINDOW 0 32 56 VTop 2
WINDOW 3 5 56 VBottom 2
SYMATTR InstName L1
SYMATTR Value 100µ
SYMBOL cap 784 112 R0
SYMATTR InstName C1
SYMATTR Value 100µ
SYMBOL voltage -448 128 R0
WINDOW 123 0 0 Left 0
WINDOW 39 0 0 Left 0
SYMATTR InstName V1
SYMATTR Value 12
SYMBOL cap 320 272 R0
SYMATTR InstName C2
SYMATTR Value 0.1µ
SYMBOL cap 256 336 R0
SYMATTR InstName C3
SYMATTR Value 0.1µ
SYMBOL res 192 320 R90
WINDOW 0 0 56 VBottom 2
WINDOW 3 32 56 VTop 2
SYMATTR InstName R2
SYMATTR Value 15.4k
SYMBOL cap -64 384 R0
SYMATTR InstName C4
SYMATTR Value 0.1µ
SYMBOL res 928 64 R0
SYMATTR InstName R5
SYMATTR Value 200
TEXT 78 266 Left 2 !.tran .1
