Version 4
SHEET 1 3592 828
WIRE 1312 -208 1136 -208
WIRE 1392 -192 1360 -192
WIRE 1872 -192 1472 -192
WIRE 2096 -192 1952 -192
WIRE 2272 -192 2096 -192
WIRE 2368 -192 2336 -192
WIRE 2432 -192 2368 -192
WIRE 2640 -192 2432 -192
WIRE 1136 -160 1136 -208
WIRE 1360 -160 1360 -192
WIRE 1264 -128 1232 -128
WIRE 2640 -128 2640 -192
WIRE 1312 -112 1312 -208
WIRE 1504 -112 1312 -112
WIRE 2096 -112 2096 -192
WIRE 2432 -112 2432 -192
WIRE 1504 -96 1504 -112
WIRE 1264 -80 1264 -128
WIRE 1136 -48 1136 -80
WIRE 1232 -48 1232 -128
WIRE 1232 -48 1136 -48
WIRE 1344 -32 960 -32
WIRE 2048 -32 1776 -32
WIRE 2432 -16 2432 -48
WIRE 1776 0 1776 -32
WIRE 1776 0 1664 0
WIRE 2368 0 2368 -192
WIRE 2640 16 2640 -48
WIRE 1344 32 1136 32
WIRE 2096 32 2096 -16
WIRE 2096 32 1920 32
WIRE 2096 64 2096 32
WIRE 1136 80 1136 32
WIRE 1344 96 1232 96
WIRE 1232 112 1232 96
WIRE 1920 128 1920 32
WIRE 1920 128 1664 128
WIRE 2368 128 2368 80
WIRE 2368 128 2240 128
WIRE 1344 160 1312 160
WIRE 1136 176 1136 144
WIRE 2368 176 2368 128
WIRE 2096 208 2096 144
WIRE 1232 224 1232 192
WIRE 1312 224 1312 160
WIRE 1312 224 1232 224
WIRE 1504 240 1504 224
WIRE 1232 256 1232 224
WIRE 2368 304 2368 256
WIRE 1232 336 1232 320
WIRE 960 400 960 -32
WIRE 2240 400 2240 128
WIRE 2240 400 960 400
FLAG 1504 240 0
FLAG 1360 -160 0
FLAG 2432 -16 0
FLAG 1232 336 0
FLAG 2368 304 0
FLAG 2096 208 0
FLAG 1136 176 0
FLAG 2640 16 0
FLAG 1264 -80 0
SYMBOL PowerProducts\\LT1242 1504 64 R0
SYMATTR InstName U1
SYMBOL voltage 1488 -192 R90
WINDOW 0 -32 56 VBottom 2
WINDOW 3 32 56 VTop 2
WINDOW 123 0 0 Left 0
WINDOW 39 0 0 Left 0
SYMATTR InstName V1
SYMATTR Value 12
SYMBOL nmos 2048 -112 R0
SYMATTR InstName M1
SYMATTR Value IRFP4668
SYMBOL diode 2272 -176 R270
WINDOW 0 32 32 VTop 2
WINDOW 3 0 32 VBottom 2
SYMATTR InstName D1
SYMATTR Value RFUH20NS3S
SYMBOL ind 1856 -176 R270
WINDOW 0 32 56 VTop 2
WINDOW 3 5 56 VBottom 2
SYMATTR InstName L1
SYMATTR Value 12.67µ
SYMATTR SpiceLine Ipk=10
SYMBOL cap 2416 -112 R0
SYMATTR InstName C1
SYMATTR Value 2.2µ
SYMBOL cap 1216 256 R0
SYMATTR InstName C2
SYMATTR Value 3.2n
SYMBOL res 1216 96 R0
SYMATTR InstName R1
SYMATTR Value 3k7
SYMBOL res 2352 -16 R0
SYMATTR InstName R2
SYMATTR Value 120k
SYMBOL res 2352 160 R0
SYMATTR InstName R3
SYMATTR Value 3k
SYMBOL res 2080 48 R0
SYMATTR InstName R4
SYMATTR Value 128m
SYMBOL cap 1120 80 R0
SYMATTR InstName C3
SYMATTR Value 0.01µ
SYMATTR SpiceLine V=100
SYMBOL res 2624 -144 R0
SYMATTR InstName R5
SYMATTR Value 200
SYMBOL voltage 1136 -176 R0
WINDOW 123 0 0 Left 0
WINDOW 39 0 0 Left 0
SYMATTR InstName V2
SYMATTR Value 24
TEXT 960 408 Left 2 !.tran .01
TEXT 2888 -200 Left 2 ;Parameters\nVin = 12V\nVout = 100V\nPowerOut = 50W\nFreq = ~110KHz\nCap Vrip = 2% from Vout \nDelta Ind.L = 20%\nEfficiency = 85%
TEXT 1312 280 Left 2 ;R1 and C2 set from datasheet at ~110KHz\nwith DutyCycle of ~90%
TEXT 2896 88 Left 2 ;NUMBER 1:\n \nD= 1-(Vin/Vout)\nD= 1- ( 12 / 100) = 0.88\nD= 0.88
TEXT 2896 280 Left 2 ;NUMBER 2:\n \nRload = (Vout * Vout) / PowerOut\n(100*100)/50 = 200\nRload = 200R
TEXT 2896 504 Left 2 ;NUMBER 3:\n \nILaverage = PowerOut / ( Vin * Efficiency)\n50 / (12 * 0.85) = 3.54A\nDeltaIL = 0.20% * 3.54A = 0.7A\nDeltaIL = 0.7A / 2 to give +-0.350A\nILmax = 0.35 + 3.54 = 3.89A\nILmin = 3.54 - 0.35 = 3.18A\n \nLmin = [D (1-D) (1-D) Rload] / (2*Freq)\nLmin = [0.88 * (1 - 0.88) * (1 - 0.88) * 200] / (2 * 110KHz)\nLmin = 12.67uH
TEXT 2160 624 Left 2 ;NUMBER 4:\n \nC = (D * Vout) / ( Vrip * R * Freq )\nC = (0.88 * 100 ) / [(0.02% * 100 )*200* 110KHz]\nC = 2.2uF
TEXT 2392 96 Left 2 ;VFB has to be 2.5V\nUse large values to keep power dissipation\nto a minimum
TEXT 1888 216 Left 2 ;Isense:\n(current sense TH) / ILmax\n1V / 3.89A\n257mOhms\n \n257/2 = 128m R sense
