Version 4
SHEET 1 2096 1732
WIRE -80 208 -176 208
WIRE 80 208 -16 208
WIRE -928 304 -944 304
WIRE -704 304 -848 304
WIRE -432 304 -704 304
WIRE -176 304 -176 208
WIRE -176 304 -432 304
WIRE -96 304 -176 304
WIRE 80 304 80 208
WIRE 80 304 -16 304
WIRE 416 304 80 304
WIRE 560 304 416 304
WIRE 736 304 624 304
WIRE 880 304 736 304
WIRE 976 304 880 304
WIRE 1024 304 976 304
WIRE -944 320 -944 304
WIRE -704 336 -704 304
WIRE -432 384 -432 304
WIRE -704 416 -704 400
WIRE 736 416 736 304
WIRE 880 432 880 304
WIRE 976 432 976 304
WIRE 1024 432 1024 304
WIRE -592 448 -880 448
WIRE 416 464 416 304
WIRE 528 464 416 464
WIRE -240 480 -272 480
WIRE 176 480 -160 480
WIRE -592 512 -800 512
WIRE 416 512 416 464
WIRE 880 512 880 496
WIRE 976 512 976 496
WIRE 976 512 880 512
WIRE -800 528 -800 512
WIRE 736 528 736 496
WIRE 736 528 576 528
WIRE 880 528 880 512
WIRE 1024 544 1024 512
WIRE 528 560 528 464
WIRE 736 560 736 528
WIRE -592 576 -672 576
WIRE -672 592 -672 576
WIRE 176 592 176 480
WIRE 224 592 176 592
WIRE 320 592 304 592
WIRE 368 592 320 592
WIRE -800 608 -800 592
WIRE -144 608 -272 608
WIRE -592 640 -608 640
WIRE 320 672 320 592
WIRE -672 688 -672 672
WIRE -608 688 -608 640
WIRE -608 688 -672 688
WIRE -672 704 -672 688
WIRE 736 704 736 640
WIRE 528 720 528 640
WIRE -432 736 -432 704
WIRE 320 784 320 736
WIRE -672 800 -672 768
WIRE -144 816 -144 608
WIRE 416 816 416 608
WIRE 416 816 -144 816
WIRE -880 848 -880 448
WIRE 576 848 576 528
WIRE 576 848 -880 848
WIRE 416 896 416 816
WIRE 528 896 528 784
WIRE 416 1008 416 976
FLAG -944 320 0
FLAG -800 608 0
FLAG -432 736 0
FLAG -672 800 0
FLAG 416 1008 0
FLAG 736 704 0
FLAG 880 528 0
FLAG 1024 544 0
FLAG -704 416 0
FLAG 320 784 0
FLAG 528 896 0
SYMBOL PowerProducts\\LT1243 -432 544 R0
SYMATTR InstName U1
SYMBOL voltage -832 304 R90
WINDOW 0 -32 56 VBottom 2
WINDOW 3 32 56 VTop 2
WINDOW 123 0 0 Left 0
WINDOW 39 0 0 Left 0
SYMATTR InstName V1
SYMATTR Value 12
SYMBOL cap -816 528 R0
SYMATTR InstName C1
SYMATTR Value 0.01µ
SYMBOL res -688 576 R0
SYMATTR InstName R1
SYMATTR Value 10k
SYMBOL cap -688 704 R0
SYMATTR InstName C2
SYMATTR Value 10n
SYMBOL nmos 368 512 R0
SYMATTR InstName M1
SYMATTR Value AOD450
SYMBOL ind -112 320 R270
WINDOW 0 32 56 VTop 2
WINDOW 3 5 56 VBottom 2
SYMATTR InstName L1
SYMATTR Value 47µ
SYMATTR SpiceLine Ipk=10.34 Rser=0.0672 Rpar=4957.99 Cpar=0
SYMBOL res 400 880 R0
SYMATTR InstName R2
SYMATTR Value 300m
SYMBOL diode 560 320 R270
WINDOW 0 32 32 VTop 2
WINDOW 3 0 32 VBottom 2
SYMATTR InstName D1
SYMATTR Value RFUH20TJ6S
SYMBOL res 720 400 R0
SYMATTR InstName R3
SYMATTR Value 180K
SYMBOL res 720 544 R0
SYMATTR InstName R4
SYMATTR Value 2k5
SYMBOL cap 864 432 R0
SYMATTR InstName C3
SYMATTR Value 172n
SYMBOL res 1008 416 R0
SYMATTR InstName R5
SYMATTR Value 4K
SYMBOL res -144 464 R90
WINDOW 0 0 56 VBottom 2
WINDOW 3 32 56 VTop 2
SYMATTR InstName R10
SYMATTR Value 20
SYMBOL cap 960 432 R0
SYMATTR InstName C6
SYMATTR Value 11µ
SYMATTR SpiceLine V=400V
SYMBOL cap -720 336 R0
SYMATTR InstName C5
SYMATTR Value 330µ
SYMATTR SpiceLine V=200
SYMBOL ind 320 576 R90
WINDOW 0 5 56 VBottom 2
WINDOW 3 32 56 VTop 2
SYMATTR InstName L2
SYMATTR Value 10µ
SYMBOL cap 304 672 R0
SYMATTR InstName C4
SYMATTR Value 61p
SYMBOL res 512 544 R0
SYMATTR InstName R6
SYMATTR Value 60
SYMBOL cap 512 720 R0
SYMATTR InstName C7
SYMATTR Value 900p
TEXT 1136 -128 Left 2 ;Requirements:\nVin = 12V\nVout = 180V\nVp = Update to 18W\nFreq = ~500KHz (Changet to 300KHz)\nCap Vrip = 1% of Vout\nDelta Ind.L = 20%\nEfficiency = 85%
TEXT 1136 136 Left 2 ;1: Duty Cycle\n \nD = 1 - (Vin / Vout)\nD = 1 - (12V / 180V) = 0.93%
TEXT 1136 288 Left 2 ;2: Rload\n \nRload = (Vout * Vout ) / Vp\nRload = (180V * 180V) / 18W = 1K8
TEXT 1136 432 Left 2 ;3 Inductor:\n \nILaverage = Vp / ( Vin * Efficiency)\nILaverage = 18 / (12 * 0.85) = 1.764A\n \nDeltaIL ( if not given usually from 20% to 30% ) * ILaverage\nDeltaIL = 0.20% * 1.764A = 0.352A\nDeltaIL = 0.352A / 2 to give +-0.176A\nILmax = 1.764A + 0.176A = 1.940A\nILmin = 1.764A - 0.176A = 1.587A\n \nLmin = [D (1-D) (1-D) Rload] / (2*Freq)\nLmin = [0.933% * (1 - 0.933%) * (1 - 0.933%) * 1K8] / (2 * 300KHz) = 12.56 uH
TEXT 1136 864 Left 2 ;4 Capacitor:\n \nCo = (D * Vout) / ( (Vrip% * Vo) Rload * Freq )\nCo = (0.93% * 180V ) / [(0.01% * 180V ) * 1K8 * 300KHz] = 172nF
TEXT -1328 1352 Left 2 ;Oscillator: UPDATE\n \nRiseTime = 0.583 * R * C\nRise Time = 0.583 * 10K * 500p = 2.915 uS\n \nDischargeTime = (3.46 * R * C) / 0.0164 * R - 11.73\nDischargeTime = (3.46 * 10K * 500p) / 0.0164 * 10K -11.73 = 0.113 uS\n \nPeriod = RiseTime + DiscgargeTime\nPeriod = 2.915 + 0.113 = 3.028 uS\n \n \nFreq = 1 / Period\nFreq = 1 / 3.028uS = 330.250 KHz
TEXT 136 -360 Left 2 ;Isense:\n(current sense TH) / ILmax\n1V / 1.94A\n0.515R \n \n0.515R/2 = 257m Rsense use 300
TEXT -584 744 Left 2 ;~330KHz
TEXT -616 888 Left 2 !.tran 50m
TEXT -1336 1200 Left 2 ;FET: OBSOLETE NEW FET faster switching\n \nOutput 12V 1A FET can sink ~10A\nRgateMin = 12/1 = 12R used ~20R\nThe smaller the Rgate the FET responds faster
TEXT 824 1464 Left 2 ;Snubbing circuit NEEDS UPDATE\n \nC1 = ((Iaverage in Inductor / 2)  * Toff) / 2*Vout\nC1 = ((1.764A / 2) * 0.113 uS) / 2 * 180V = 0.276 pF\n \nR1= Ton / (3 * C1)\nR1 = Ton / 3 * 0.276 pF = 3M5
TEXT 624 120 Left 2 ;NIXIELOAD:\n \nInternal Nixie pin impedance ~37K\n \n26K load resistor for each pin for ~2.8A draw
TEXT 136 -72 Left 2 ;INCREASE POWER RATING
TEXT 440 408 Left 2 ;Coss = 20p 32p 50p
